Version 4.1
SHEET 1 2052 900
WIRE 624 -208 624 -240
WIRE 624 -144 624 -208
WIRE 48 -128 -96 -128
WIRE 976 -128 912 -128
WIRE 992 -128 976 -128
WIRE 976 -96 912 -96
WIRE 992 -96 976 -96
WIRE -416 -80 -416 -144
WIRE 976 -64 912 -64
WIRE 992 -64 976 -64
WIRE -720 -48 -720 -128
WIRE -656 -48 -720 -48
WIRE 384 -32 80 -32
WIRE 976 -32 912 -32
WIRE 992 -32 976 -32
WIRE -704 -16 -736 -16
WIRE -656 -16 -704 -16
WIRE -96 0 -96 -128
WIRE -96 0 -160 0
WIRE 384 0 -96 0
WIRE 1008 0 912 0
WIRE -720 16 -736 16
WIRE -656 16 -720 16
WIRE -80 32 -160 32
WIRE 384 32 288 32
WIRE 1008 32 912 32
WIRE -720 48 -736 48
WIRE -656 48 -720 48
WIRE -80 64 -160 64
WIRE 384 64 288 64
WIRE 1008 64 912 64
WIRE -720 80 -736 80
WIRE -656 80 -720 80
WIRE 1008 96 912 96
WIRE -720 112 -736 112
WIRE -656 112 -720 112
WIRE 1008 128 912 128
WIRE -432 208 -432 144
WIRE -400 208 -400 144
WIRE -432 224 -432 208
WIRE -400 224 -400 208
WIRE 608 240 608 176
WIRE 640 240 640 176
WIRE 608 256 608 240
WIRE 640 256 640 240
FLAG -432 208 vssa
FLAG -400 208 vsuba
FLAG 624 -208 vddd
FLAG 608 240 vsubd
FLAG 640 240 vssd
FLAG -720 16 q0
FLAG -720 48 q1
FLAG -720 80 q2
FLAG -720 112 q3
FLAG 976 -128 q0
FLAG 976 -96 q1
FLAG 976 -64 q2
FLAG 976 -32 q3
FLAG -416 -144 vdda
IOPIN -416 -144 BiDir
FLAG -400 224 vsuba
IOPIN -400 224 BiDir
FLAG -432 224 vssa
IOPIN -432 224 BiDir
FLAG 624 -240 vddd
IOPIN 624 -240 BiDir
FLAG 608 256 vsub
IOPIN 608 256 BiDir
FLAG 640 256 vssd
IOPIN 640 256 BiDir
FLAG 1008 0 tespoint_clk_b
IOPIN 1008 0 Out
FLAG 1008 32 tespoint_sel0
IOPIN 1008 32 Out
FLAG 1008 64 tespoint_sel1
IOPIN 1008 64 Out
FLAG 1008 96 tespoint_sel2
IOPIN 1008 96 Out
FLAG 1008 128 tespoint_sel3
IOPIN 1008 128 Out
FLAG 80 -32 clk0
IOPIN 80 -32 In
FLAG -80 32 testpoint_dac_out
IOPIN -80 32 Out
FLAG -80 64 testpoint_sh_out
IOPIN -80 64 Out
FLAG 288 32 reset
IOPIN 288 32 In
FLAG 288 64 start
IOPIN 288 64 In
FLAG -704 -16 start
FLAG -720 -128 analog_input
IOPIN -720 -128 In
FLAG 992 -128 q0
IOPIN 992 -128 Out
FLAG 992 -96 q1
IOPIN 992 -96 Out
FLAG 992 -64 q2
IOPIN 992 -64 Out
FLAG 992 -32 q3
IOPIN 992 -32 Out
FLAG 48 -128 testpoint_comp_out
IOPIN 48 -128 Out
SYMBOL dsproj_anatop -416 32 R0
SYMATTR InstName X3
SYMBOL dsproj_digtop 640 32 R0
SYMATTR InstName X4
TEXT -792 -392 Left 4 ;ADC_top
