Version 4.1
SHEET 1 880 680
WIRE -272 -208 -288 -208
WIRE -288 -160 -288 -208
WIRE -432 -96 -448 -96
WIRE -368 -96 -432 -96
WIRE -112 -96 -160 -96
WIRE -432 -64 -448 -64
WIRE -368 -64 -432 -64
WIRE -304 48 -304 16
WIRE -272 64 -272 16
WIRE -304 80 -304 48
WIRE -272 80 -272 64
WIRE -784 208 -832 208
WIRE -768 208 -784 208
WIRE -624 208 -672 208
WIRE -592 208 -624 208
WIRE -448 208 -496 208
WIRE -416 208 -448 208
WIRE 16 208 -32 208
WIRE 64 208 16 208
WIRE -832 272 -832 208
WIRE -672 272 -672 208
WIRE -496 272 -496 208
WIRE -32 288 -32 208
WIRE -832 400 -832 352
WIRE -672 400 -672 352
WIRE -672 400 -832 400
WIRE -496 400 -496 352
WIRE -496 400 -672 400
WIRE -432 400 -496 400
WIRE -256 400 -432 400
WIRE -32 400 -32 368
WIRE -32 400 -256 400
WIRE -432 432 -432 400
WIRE -432 528 -432 512
WIRE -432 528 -576 528
WIRE -576 608 -576 528
FLAG -784 208 vdd
FLAG -272 -208 vdd
FLAG -576 608 0
FLAG 16 208 vsub
FLAG -304 48 vsub
FLAG -256 400 vss
FLAG -432 -96 vin
FLAG -624 208 vref
FLAG -448 208 vin
FLAG -432 -64 vref
FLAG -272 64 vss
FLAG -112 -96 vout
SYMBOL dsproj_twostagecomparator -288 -80 R0
WINDOW 0 3 15 Bottom 2
SYMATTR InstName X1
SYMBOL voltage -832 256 R0
WINDOW 123 0 0 Left 0
WINDOW 39 0 0 Left 0
SYMATTR InstName V1
SYMATTR Value 1.5
SYMBOL voltage -672 256 R0
WINDOW 123 0 0 Left 0
WINDOW 39 0 0 Left 0
SYMATTR InstName V2
SYMATTR Value 1.2
SYMBOL voltage -496 256 R0
WINDOW 123 0 0 Left 0
WINDOW 39 0 0 Left 0
SYMATTR InstName V3
SYMATTR Value PULSE(0 1.5 2u 4u 4u 10u 100u)
SYMBOL voltage -32 272 R0
WINDOW 123 0 0 Left 0
WINDOW 39 0 0 Left 0
SYMATTR InstName V5
SYMATTR Value 0
SYMBOL res -448 416 R0
SYMATTR InstName R1
SYMATTR Value 0
TEXT -856 -320 Left 2 !.tran 8u
TEXT -848 -288 Left 2 !;op 8u
