Version 4.1
SHEET 1 27204 11108
WIRE -1616 -1728 -1760 -1728
WIRE -1152 -1728 -1328 -1728
WIRE -944 -1728 -1088 -1728
WIRE -1600 -1664 -1744 -1664
WIRE -544 -1632 -592 -1632
WIRE -192 -1632 -240 -1632
WIRE 176 -1632 128 -1632
WIRE 576 -1632 480 -1632
WIRE -1600 -1600 -1744 -1600
WIRE -1104 -1552 -1104 -1584
WIRE -944 -1552 -944 -1728
WIRE -752 -1552 -752 -1584
WIRE -416 -1552 -416 -1584
WIRE -48 -1552 -48 -1584
WIRE 304 -1552 304 -1584
WIRE 1904 -1552 1904 -1568
WIRE -1104 -1520 -1104 -1552
WIRE -752 -1520 -752 -1552
WIRE -416 -1520 -416 -1552
WIRE -48 -1520 -48 -1552
WIRE 304 -1520 304 -1552
WIRE -1200 -1472 -1488 -1472
WIRE -896 -1472 -912 -1472
WIRE -848 -1472 -896 -1472
WIRE -544 -1472 -560 -1472
WIRE -512 -1472 -544 -1472
WIRE -192 -1472 -208 -1472
WIRE -144 -1472 -192 -1472
WIRE 176 -1472 160 -1472
WIRE 208 -1472 176 -1472
WIRE -1488 -1456 -1488 -1472
WIRE -1200 -1440 -1312 -1440
WIRE -944 -1440 -944 -1552
WIRE -944 -1440 -1008 -1440
WIRE -896 -1440 -912 -1440
WIRE -848 -1440 -896 -1440
WIRE -592 -1440 -592 -1632
WIRE -592 -1440 -656 -1440
WIRE -544 -1440 -560 -1440
WIRE -512 -1440 -544 -1440
WIRE -240 -1440 -240 -1632
WIRE -240 -1440 -320 -1440
WIRE -192 -1440 -208 -1440
WIRE -144 -1440 -192 -1440
WIRE 128 -1440 128 -1632
WIRE 128 -1440 48 -1440
WIRE 176 -1440 160 -1440
WIRE 208 -1440 176 -1440
WIRE 480 -1440 480 -1632
WIRE 480 -1440 400 -1440
WIRE -1328 -1424 -1328 -1728
WIRE -1328 -1408 -1328 -1424
WIRE -1200 -1408 -1328 -1408
WIRE -944 -1408 -944 -1440
WIRE -848 -1408 -944 -1408
WIRE -592 -1408 -592 -1440
WIRE -512 -1408 -592 -1408
WIRE -240 -1408 -240 -1440
WIRE -144 -1408 -240 -1408
WIRE 128 -1408 128 -1440
WIRE 208 -1408 128 -1408
WIRE -1200 -1376 -1264 -1376
WIRE -896 -1376 -912 -1376
WIRE -848 -1376 -896 -1376
WIRE -560 -1376 -576 -1376
WIRE -512 -1376 -560 -1376
WIRE -192 -1376 -208 -1376
WIRE -144 -1376 -192 -1376
WIRE 160 -1376 144 -1376
WIRE 208 -1376 160 -1376
WIRE -1120 -1280 -1120 -1312
WIRE -1088 -1280 -1088 -1312
WIRE -768 -1280 -768 -1312
WIRE -736 -1280 -736 -1312
WIRE -432 -1280 -432 -1312
WIRE -400 -1280 -400 -1312
WIRE -64 -1280 -64 -1312
WIRE -32 -1280 -32 -1312
WIRE 288 -1280 288 -1312
WIRE 320 -1280 320 -1312
WIRE -1312 -1264 -1312 -1440
WIRE -1120 -1264 -1120 -1280
WIRE -1088 -1264 -1088 -1280
WIRE -768 -1264 -768 -1280
WIRE -736 -1264 -736 -1280
WIRE -432 -1264 -432 -1280
WIRE -400 -1264 -400 -1280
WIRE -64 -1264 -64 -1280
WIRE -32 -1264 -32 -1280
WIRE 288 -1264 288 -1280
WIRE 320 -1264 320 -1280
WIRE 480 -1264 480 -1360
WIRE -1584 -1232 -1600 -1232
WIRE -1488 -1232 -1584 -1232
WIRE -1312 -1232 -1312 -1264
WIRE -1312 -1232 -1424 -1232
WIRE -1488 -1216 -1648 -1216
WIRE -1488 -1200 -1552 -1200
WIRE -1552 -1136 -1552 -1200
WIRE -400 -1056 -592 -1056
WIRE -896 -928 -912 -928
WIRE -736 -928 -896 -928
WIRE -592 -928 -592 -1056
WIRE -592 -928 -672 -928
WIRE -496 -928 -592 -928
WIRE -288 -928 -432 -928
WIRE -1488 -912 -1632 -912
WIRE -1328 -912 -1424 -912
WIRE -1280 -912 -1328 -912
WIRE -1424 -800 -1424 -832
WIRE -1424 -768 -1424 -800
WIRE -1552 -720 -1568 -720
WIRE -1520 -720 -1552 -720
WIRE -1552 -688 -1568 -688
WIRE -1520 -688 -1552 -688
WIRE -1280 -688 -1280 -912
WIRE -1280 -688 -1328 -688
WIRE -1632 -656 -1632 -912
WIRE -1520 -656 -1632 -656
WIRE -1520 -624 -1584 -624
WIRE -1440 -528 -1440 -560
WIRE -1408 -528 -1408 -560
WIRE -1440 -512 -1440 -528
WIRE -1408 -512 -1408 -528
FLAG -1104 -1552 vdd
FLAG -1120 -1280 vsub
FLAG -1088 -1280 vss
FLAG -752 -1552 vdd
FLAG -768 -1280 vsub
FLAG -736 -1280 vss
FLAG -416 -1552 vdd
FLAG -432 -1280 vsub
FLAG -400 -1280 vss
FLAG -48 -1552 vdd
FLAG -64 -1280 vsub
FLAG -32 -1280 vss
FLAG 304 -1552 vdd
FLAG 288 -1280 vsub
FLAG 320 -1280 vss
FLAG -1424 -800 vdd
FLAG -1440 -528 vsub
FLAG -1408 -528 vss
FLAG -1264 -1376 vss
FLAG -896 -1376 vss
FLAG -560 -1376 vss
FLAG -192 -1376 vss
FLAG 160 -1376 vss
FLAG -1584 -624 vss
FLAG 480 -1264 0
FLAG -896 -1472 clk_ff
FLAG -544 -1472 clk_ff
FLAG -192 -1472 clk_ff
FLAG 176 -1472 clk_ff
FLAG -896 -1440 reset
FLAG -544 -1440 reset
FLAG -192 -1440 reset
FLAG 176 -1440 reset
FLAG -1552 -688 reset
FLAG -1552 -720 clk_in
IOPIN -1552 -720 In
FLAG -944 -1552 start_ff
FLAG -1328 -1424 start_d
FLAG -1488 -1456 start
IOPIN -1488 -1456 In
FLAG -1328 -912 clk_ff
FLAG -544 -1632 sel3
IOPIN -544 -1632 Out
FLAG -192 -1632 sel2
IOPIN -192 -1632 Out
FLAG 176 -1632 sel1
IOPIN 176 -1632 Out
FLAG 576 -1632 sel0
IOPIN 576 -1632 Out
FLAG -1616 -1728 vdd
IOPIN -1616 -1728 BiDir
FLAG -1600 -1664 vss
IOPIN -1600 -1664 BiDir
FLAG -1600 -1600 vsub
IOPIN -1600 -1600 BiDir
FLAG -1584 -1232 sel3
FLAG -1648 -1216 reset
IOPIN -1648 -1216 In
FLAG -1552 -1136 0
FLAG -896 -928 clk_in
IOPIN -896 -928 In
FLAG -288 -928 clk_out
IOPIN -288 -928 Out
FLAG -400 -1056 clk_out_b
IOPIN -400 -1056 Out
FLAG -1312 -1264 clr_ff1
SYMBOL dsproj_dff -1136 -1408 R0
SYMATTR InstName X1
SYMBOL dsproj_dff -784 -1408 R0
SYMATTR InstName X2
SYMBOL dsproj_dff -448 -1408 R0
SYMATTR InstName X3
SYMBOL dsproj_dff -80 -1408 R0
SYMATTR InstName X4
SYMBOL dsproj_dff 272 -1408 R0
SYMATTR InstName X5
SYMBOL dsproj_dff -1456 -656 R0
SYMATTR InstName X6
SYMBOL res 464 -1456 R0
SYMATTR InstName R1
SYMATTR Value 100e3
SYMBOL Digital\\inv -1088 -1792 M0
SYMATTR InstName A1
SYMBOL Digital\\inv -1424 -976 M0
SYMATTR InstName A2
SYMBOL Digital\\or -1456 -1280 R0
SYMATTR InstName A3
SYMBOL Digital\\inv -736 -864 M180
SYMATTR InstName A4
SYMBOL Digital\\inv -496 -864 M180
SYMATTR InstName A5
TEXT -152 -680 Left 2 !.model MYPMOS PMOS (LEVEL=1 VTO=-0.7 KP=20u LAMBDA=0.01)\n.model MYNMOS NMOS (LEVEL=1 VTO=0.7 KP=50u LAMBDA=0.02)
