Version 4.1
SHEET 1 880 680
WIRE 112 -208 48 -208
WIRE 160 -208 112 -208
WIRE 256 -208 208 -208
WIRE 288 -208 256 -208
WIRE 448 -208 384 -208
WIRE 496 -208 448 -208
WIRE -448 -192 -448 -224
WIRE 48 -160 48 -208
WIRE 208 -160 208 -208
WIRE 384 -160 384 -208
WIRE -448 -144 -448 -192
WIRE -688 -48 -720 -48
WIRE -608 -48 -688 -48
WIRE -224 -32 -320 -32
WIRE -160 -32 -224 -32
WIRE -608 -16 -928 -16
WIRE 48 -16 48 -80
WIRE 208 -16 208 -80
WIRE 384 -16 384 -80
WIRE -160 0 -160 -32
WIRE -928 48 -928 -16
WIRE 0 64 -16 64
WIRE -160 112 -160 64
WIRE 0 112 0 64
WIRE -160 144 -160 112
WIRE -480 160 -480 96
WIRE -448 160 -448 96
WIRE -208 160 -208 112
WIRE -928 176 -928 128
WIRE 0 176 0 112
WIRE 0 176 -80 176
WIRE -480 208 -480 160
WIRE -448 208 -448 160
WIRE -208 208 -208 160
WIRE 0 208 0 176
WIRE -80 224 -80 176
WIRE -80 224 -160 224
WIRE -80 272 -160 272
WIRE -80 304 -80 272
WIRE 0 304 0 288
WIRE 0 304 -80 304
WIRE -208 336 -208 288
WIRE 0 336 0 304
WIRE -928 368 -928 256
WIRE -208 480 -208 416
WIRE -192 480 -208 480
FLAG 208 -16 0
FLAG 384 -16 0
FLAG 256 -208 VDD
FLAG 448 -208 VSUB
FLAG -208 480 0
FLAG 0 336 0
FLAG -928 368 0
FLAG -448 -192 VDD
FLAG -208 160 nmos_control
FLAG 0 112 pmos_control
FLAG -224 -32 OUT
FLAG -448 160 VSUB
FLAG 48 -16 0
FLAG 112 -208 VSS
FLAG -160 112 VSS
FLAG -688 -48 pmos_control
FLAG -480 160 VSS
SYMBOL dsproj_cmossampleandhold -464 0 R0
SYMATTR InstName X1
SYMBOL voltage 208 -176 R0
WINDOW 123 0 0 Left 0
WINDOW 39 0 0 Left 0
SYMATTR InstName V1
SYMATTR Value 1.5
SYMBOL voltage 384 -176 R0
WINDOW 123 0 0 Left 0
WINDOW 39 0 0 Left 0
SYMATTR InstName V2
SYMATTR Value 0
SYMBOL voltage -208 320 R0
WINDOW 123 0 0 Left 0
WINDOW 39 0 0 Left 0
SYMATTR InstName V3
SYMATTR Value 1.5
SYMBOL voltage 0 192 R0
WINDOW 123 0 0 Left 0
WINDOW 39 0 0 Left 0
SYMATTR InstName V4
SYMATTR Value PULSE(0 1.5 0 100p 100p 0.5m 1m)
SYMBOL e -208 192 M0
SYMATTR InstName E1
SYMATTR Value -1
SYMBOL Misc\\signal -928 160 R0
WINDOW 123 24 132 Left 2
WINDOW 39 0 0 Left 0
SYMATTR Value2 AC 1 0
SYMATTR InstName V5
SYMATTR Value SINE(0.75 0.65 100 0)
SYMBOL res -944 32 R0
SYMATTR InstName R1
SYMATTR Value 50
SYMBOL cap -176 0 R0
SYMATTR InstName C1
SYMATTR Value 10p
SYMBOL voltage 48 -176 R0
WINDOW 123 0 0 Left 0
WINDOW 39 0 0 Left 0
SYMATTR InstName V6
SYMATTR Value 0
TEXT -1088 -320 Left 2 !.tran 0 20m 0 1u
TEXT -328 -296 Left 2 !.model MYPMOS PMOS (LEVEL=1 VTO=-0.7 KP=20u LAMBDA=0.01)\n.model MYNMOS NMOS (LEVEL=1 VTO=0.7 KP=50u LAMBDA=0.02)
RECTANGLE Normal 544 528 -1104 -384
