Version 4.1
SHEET 1 1408 788
WIRE -1232 -656 -1296 -656
WIRE -1200 -656 -1232 -656
WIRE -112 -640 -112 -672
WIRE -80 -624 -80 -672
WIRE -112 -576 -112 -640
WIRE -80 -576 -80 -624
WIRE -1296 -560 -1296 -656
WIRE 304 -544 224 -544
WIRE 352 -544 304 -544
WIRE 304 -512 224 -512
WIRE 352 -512 304 -512
WIRE 304 -480 224 -480
WIRE 352 -480 304 -480
WIRE 304 -448 224 -448
WIRE 352 -448 304 -448
WIRE -448 -416 -496 -416
WIRE -368 -416 -448 -416
WIRE 320 -416 224 -416
WIRE 352 -416 320 -416
WIRE -1296 -384 -1296 -480
WIRE -448 -384 -496 -384
WIRE -368 -384 -448 -384
WIRE 320 -384 224 -384
WIRE 352 -384 320 -384
WIRE -1232 -352 -1296 -352
WIRE -1200 -352 -1232 -352
WIRE -448 -352 -496 -352
WIRE -368 -352 -448 -352
WIRE 320 -352 224 -352
WIRE 352 -352 320 -352
WIRE -448 -320 -496 -320
WIRE -368 -320 -448 -320
WIRE 320 -320 224 -320
WIRE 352 -320 320 -320
WIRE 320 -288 224 -288
WIRE 352 -288 320 -288
WIRE -1296 -256 -1296 -352
WIRE 320 -256 224 -256
WIRE 352 -256 320 -256
WIRE 592 -256 528 -256
WIRE 320 -224 224 -224
WIRE 352 -224 320 -224
WIRE 528 -208 528 -256
WIRE 320 -192 224 -192
WIRE 480 -192 320 -192
WIRE 480 -144 432 -144
WIRE -144 -96 -144 -144
WIRE -112 -96 -112 -144
WIRE -48 -96 -48 -144
WIRE 432 -96 432 -144
WIRE -80 -80 -80 -144
WIRE 432 -80 432 -96
WIRE 528 -64 528 -128
WIRE -1296 -48 -1296 -176
WIRE -144 -48 -144 -96
WIRE -112 -48 -112 -96
WIRE -80 -48 -80 -80
WIRE -48 -48 -48 -96
WIRE 528 -48 528 -64
WIRE -1232 0 -1296 0
WIRE -1200 0 -1232 0
WIRE -96 80 -96 16
WIRE -1296 96 -1296 0
WIRE -96 112 -96 80
WIRE -336 192 -352 192
WIRE -272 192 -336 192
WIRE -336 224 -352 224
WIRE -272 224 -336 224
WIRE 160 240 64 240
WIRE 224 240 160 240
WIRE -336 256 -352 256
WIRE -272 256 -336 256
WIRE -336 288 -352 288
WIRE -272 288 -336 288
WIRE -1296 304 -1296 176
WIRE 320 320 256 320
WIRE 256 368 256 320
WIRE 160 384 160 240
WIRE 208 384 160 384
WIRE -1232 416 -1296 416
WIRE -1200 416 -1232 416
WIRE 208 432 160 432
WIRE -112 448 -112 384
WIRE -80 448 -80 384
WIRE -112 464 -112 448
WIRE -80 464 -80 448
WIRE 160 480 160 432
WIRE -736 496 -768 496
WIRE -720 496 -736 496
WIRE -592 496 -608 496
WIRE -576 496 -592 496
WIRE -432 496 -464 496
WIRE -416 496 -432 496
WIRE 160 496 160 480
WIRE -1296 512 -1296 416
WIRE 256 512 256 448
WIRE 256 528 256 512
WIRE -768 576 -768 496
WIRE -608 576 -608 496
WIRE -464 576 -464 496
WIRE -1296 720 -1296 592
WIRE -768 752 -768 656
WIRE -608 752 -608 656
WIRE -464 752 -464 656
FLAG -768 752 0
FLAG -608 752 0
FLAG -464 752 0
FLAG -736 496 vdd
FLAG -592 496 vss
FLAG -432 496 vsub
FLAG -112 -640 vdd
FLAG -80 -624 vdd
FLAG -144 -96 vsub
FLAG -112 -96 vsub
FLAG -80 -80 vss
FLAG -48 -96 vss
FLAG 304 -544 q0
FLAG 304 -512 q1
FLAG 304 -480 q2
FLAG 304 -448 q3
FLAG 320 -384 testpoint_clk_b
FLAG 320 -352 testpoint_sel0
FLAG 320 -320 testpoint_sel1
FLAG 320 -288 testpoint_sel2
FLAG 320 -256 testpoint_sel3
FLAG 320 -224 testpoint_dac_out
FLAG 320 -192 testpoint_sh_out
FLAG 320 -416 testpoint_comp_out
FLAG -448 -416 vin_sin
FLAG -448 -384 clk0
FLAG -448 -352 reset
FLAG -448 -320 start
FLAG -1296 -384 0
FLAG -1232 -656 vin_sin
FLAG -1296 -48 0
FLAG -1232 -352 start
FLAG -1296 304 0
FLAG -1232 0 reset
FLAG -1296 720 0
FLAG -1232 416 clk0
FLAG -336 192 q0
FLAG -336 224 q1
FLAG -336 256 q2
FLAG -336 288 q3
FLAG -96 80 vdd
FLAG -112 448 vsub
FLAG -80 448 vss
FLAG 224 240 adc_out_converted_into_analog
FLAG 160 480 vss
FLAG 256 512 vss
FLAG 320 320 analog_out
FLAG 432 -96 vss
FLAG 528 -64 vss
FLAG 592 -256 sh_out
SYMBOL voltage -768 560 R0
WINDOW 123 0 0 Left 0
WINDOW 39 0 0 Left 0
SYMATTR InstName V1
SYMATTR Value 1.5
SYMBOL voltage -608 560 R0
WINDOW 123 0 0 Left 0
WINDOW 39 0 0 Left 0
SYMATTR InstName V2
SYMATTR Value 0
SYMBOL voltage -464 560 R0
WINDOW 123 0 0 Left 0
WINDOW 39 0 0 Left 0
SYMATTR InstName V3
SYMATTR Value 0
SYMBOL voltage -1296 -576 R0
WINDOW 123 0 0 Left 0
WINDOW 39 0 0 Left 0
SYMATTR InstName V4
SYMATTR Value SINE(0.75 0.65 1000 250u)
SYMBOL voltage -1296 -272 R0
WINDOW 123 0 0 Left 0
WINDOW 39 0 0 Left 0
SYMATTR InstName V5
SYMATTR Value PULSE(0 1.5 900u 100p 100p 2000u 4000u)
SYMBOL voltage -1296 80 R0
WINDOW 123 0 0 Left 0
WINDOW 39 0 0 Left 0
SYMATTR InstName V6
SYMATTR Value PULSE(0 1.5 0 100p 100p 150u 2m)
SYMBOL voltage -1296 496 R0
WINDOW 123 0 0 Left 0
WINDOW 39 0 0 Left 0
SYMATTR InstName V7
SYMATTR Value PULSE(0 1.5 0 100p 100p 50u 100u)
SYMBOL dsproj_r2rdac -176 320 R0
SYMATTR InstName X2
SYMBOL e 256 352 R0
SYMATTR InstName E1
SYMATTR Value 1
SYMBOL e 528 -224 R0
SYMATTR InstName E2
SYMATTR Value 1
SYMBOL dsproj_adctop -128 -352 R0
SYMATTR InstName X3
TEXT 920 -712 Left 2 !.tran 2000u
TEXT 608 704 Left 4 ;ADC top level test bench
TEXT 312 744 Left 4 ;ADC top level performace characteristics
TEXT 616 -512 Left 2 !.model MYPMOS PMOS (LEVEL=1 VTO=-0.7 KP=20u LAMBDA=0.01)\n.model MYNMOS NMOS (LEVEL=1 VTO=0.7 KP=50u LAMBDA=0.02)
RECTANGLE Normal 1104 784 -1424 -736
