Version 4.1
SHEET 1 1652 868
WIRE 352 -240 336 -240
WIRE -272 -208 -304 -208
WIRE 352 -192 352 -240
WIRE -992 -176 -992 -208
WIRE -272 -176 -272 -208
WIRE 352 -144 352 -192
WIRE -992 -112 -992 -176
WIRE -272 -96 -272 -176
WIRE -1248 -32 -1296 -32
WIRE -1168 -32 -1248 -32
WIRE -1248 0 -1296 0
WIRE -1168 0 -1248 0
WIRE -704 16 -832 16
WIRE -1248 32 -1296 32
WIRE -1168 32 -1248 32
WIRE -704 48 -704 16
WIRE 352 48 352 -64
WIRE -1248 64 -1296 64
WIRE -1168 64 -1248 64
WIRE -272 80 -272 -16
WIRE -256 208 -256 160
WIRE 336 208 336 160
WIRE -1008 240 -1008 160
WIRE -976 240 -976 160
WIRE -256 256 -256 208
WIRE 336 256 336 208
WIRE -1008 304 -1008 240
WIRE -976 304 -976 240
WIRE -256 432 -256 336
WIRE 336 432 336 336
WIRE -384 576 -384 544
WIRE -224 576 -224 544
WIRE -64 592 -64 560
WIRE -384 624 -384 576
WIRE -224 624 -224 576
WIRE -64 640 -64 592
WIRE -64 784 -64 720
WIRE -384 800 -384 704
WIRE -224 800 -224 704
WIRE -64 800 -64 784
FLAG -256 432 0
FLAG 352 48 0
FLAG -272 80 0
FLAG -256 208 b2_bar
FLAG 352 -192 b1_bar
FLAG -272 -176 b0_bar
FLAG 336 432 0
FLAG 336 208 b3_bar
FLAG -64 784 VSS
FLAG -64 592 VDD
FLAG -224 576 VSS
FLAG -224 800 0
FLAG -992 -176 VDD
FLAG -976 240 VSS
FLAG -384 576 VSUB
FLAG -384 800 0
FLAG -1008 240 VSUB
FLAG -1248 -32 b0_bar
FLAG -1248 0 b1_bar
FLAG -1248 32 b2_bar
FLAG -1248 64 b3_bar
FLAG -704 112 0
SYMBOL voltage -256 240 R0
WINDOW 123 0 0 Left 0
WINDOW 39 0 0 Left 0
SYMATTR InstName V1
SYMATTR Value PULSE(0 1.5 2n 10p 10p 80n 160n 4)
SYMBOL voltage 352 -160 R0
WINDOW 123 0 0 Left 0
WINDOW 39 0 0 Left 0
SYMATTR InstName V2
SYMATTR Value PULSE(0 1.5 2n 10p 10p 40n 80n 8)
SYMBOL voltage -272 -112 R0
WINDOW 123 0 0 Left 0
WINDOW 39 0 0 Left 0
SYMATTR InstName V3
SYMATTR Value PULSE(0 1.5 2n 10p 10p 20n 40n 16)
SYMBOL voltage 336 240 R0
WINDOW 123 0 0 Left 0
WINDOW 39 0 0 Left 0
SYMATTR InstName V4
SYMATTR Value PULSE(0 1.5 2n 10p 10p 160n 320n 2)
SYMBOL dsproj_r2rdac -1072 96 R0
WINDOW 0 0 -47 Bottom 2
SYMATTR InstName X1
SYMBOL voltage -64 624 R0
WINDOW 123 0 0 Left 0
WINDOW 39 0 0 Left 0
SYMATTR InstName Vref1
SYMATTR Value 1.5
SYMBOL res -240 608 R0
SYMATTR InstName R1
SYMATTR Value 0
SYMBOL res -400 608 R0
SYMATTR InstName R2
SYMATTR Value 0
SYMBOL cap -720 48 R0
SYMATTR InstName C1
SYMATTR Value 0.1p
TEXT -1576 -368 Left 2 !.tran 400n
TEXT -1592 -320 Left 2 !.model MYPMOS PMOS (LEVEL=1 VTO=-0.7 KP=20u LAMBDA=0.01)\n.model MYNMOS NMOS (LEVEL=1 VTO=0.7 KP=50u LAMBDA=0.02)
RECTANGLE Normal 800 864 -1616 -448
