Version 4.1
SHEET 1 1268 680
WIRE 416 -176 400 -176
WIRE 864 -176 848 -176
WIRE 880 -176 864 -176
WIRE 64 -160 64 -176
WIRE 64 -112 64 -144
WIRE 400 -112 400 -176
WIRE 848 -112 848 -176
WIRE 320 -80 288 -80
WIRE 336 -80 320 -80
WIRE -176 -48 -192 -48
WIRE -128 -48 -176 -48
WIRE 320 -48 288 -48
WIRE 336 -48 320 -48
WIRE -176 -16 -192 -16
WIRE -128 -16 -176 -16
WIRE 320 -16 288 -16
WIRE 352 -16 320 -16
WIRE -176 16 -192 16
WIRE -128 16 -176 16
WIRE 320 16 288 16
WIRE 352 16 320 16
WIRE 320 48 288 48
WIRE 352 48 320 48
WIRE 400 48 400 -32
WIRE 432 48 400 48
WIRE 848 48 848 -32
WIRE 880 48 848 48
WIRE 320 80 288 80
WIRE 352 80 320 80
WIRE 48 128 48 96
WIRE 80 128 80 96
WIRE 304 128 288 128
WIRE 432 128 416 128
WIRE 576 128 560 128
WIRE 592 128 576 128
WIRE 736 128 720 128
WIRE 48 144 48 128
WIRE 80 144 80 128
WIRE 288 192 288 128
WIRE 416 192 416 128
WIRE 560 192 560 128
WIRE 720 192 720 128
WIRE 288 352 288 272
WIRE 304 352 288 352
WIRE 416 352 416 272
WIRE 448 352 416 352
WIRE 560 352 560 272
WIRE 592 352 560 352
WIRE 720 352 720 272
WIRE 736 352 720 352
FLAG 64 -144 vdd
FLAG 48 128 vsub
FLAG 80 128 vss
FLAG -176 -48 clk0
FLAG -176 -16 reset
FLAG -176 16 start
FLAG 320 -80 clk
FLAG 320 -48 clk_b
FLAG 320 -16 sel0
FLAG 320 16 sel1
FLAG 320 48 sel2
FLAG 320 80 sel3
FLAG 304 352 0
FLAG 448 352 0
FLAG 592 352 0
FLAG 288 128 vdd
FLAG 432 128 vss
FLAG 576 128 vsub
FLAG 736 352 0
FLAG 432 48 0
FLAG 880 48 0
FLAG 720 128 start
FLAG 416 -176 clk0
FLAG 864 -176 reset
SYMBOL dsproj_clkgenerator 0 32 R0
SYMATTR InstName X1
SYMBOL voltage 288 176 R0
WINDOW 123 0 0 Left 0
WINDOW 39 0 0 Left 0
SYMATTR InstName V1
SYMATTR Value 1.5
SYMBOL voltage 416 176 R0
WINDOW 123 0 0 Left 0
WINDOW 39 0 0 Left 0
SYMATTR InstName V2
SYMATTR Value 0
SYMBOL voltage 560 176 R0
WINDOW 123 0 0 Left 0
WINDOW 39 0 0 Left 0
SYMATTR InstName V3
SYMATTR Value 0
SYMBOL voltage 720 176 R0
WINDOW 123 0 0 Left 0
WINDOW 39 0 0 Left 0
SYMATTR InstName V4
SYMATTR Value PULSE(0 1 60u 100p 100p 800u 1000u)
SYMBOL voltage 400 -128 R0
WINDOW 123 0 0 Left 0
WINDOW 39 0 0 Left 0
SYMATTR InstName V5
SYMATTR Value PULSE(0 1 0 100p 100p 50u 100u)
SYMBOL voltage 848 -128 R0
WINDOW 123 0 0 Left 0
WINDOW 39 0 0 Left 0
SYMATTR InstName V6
SYMATTR Value PULSE(0 1 0 100p 100p 20u 20)
TEXT -184 -320 Left 2 !.tran 2m
TEXT -192 -272 Left 2 !.model MYPMOS PMOS (LEVEL=1 VTO=-0.7 KP=20u LAMBDA=0.01)\n.model MYNMOS NMOS (LEVEL=1 VTO=0.7 KP=50u LAMBDA=0.02)
