Version 4
SHEET 1 880 680
WIRE 160 -32 0 -32
WIRE 288 -32 160 -32
WIRE 416 -32 288 -32
WIRE 288 0 288 -32
WIRE 0 64 0 -32
WIRE 416 64 416 -32
WIRE -128 128 -160 128
WIRE -80 128 -128 128
WIRE 256 128 96 128
WIRE 288 128 288 80
WIRE 336 128 288 128
WIRE 576 128 512 128
WIRE -80 160 -144 160
WIRE 256 160 256 128
WIRE 336 160 256 160
WIRE 288 224 288 128
WIRE 448 272 448 224
WIRE 32 288 32 224
WIRE 32 304 32 288
WIRE 448 304 448 272
WIRE 0 352 0 224
WIRE 160 352 0 352
WIRE 288 352 288 304
WIRE 288 352 160 352
WIRE 416 352 416 224
WIRE 416 352 288 352
FLAG 32 288 vsub
IOPIN 32 288 BiDir
FLAG 448 272 vsub
FLAG 160 -32 vdd
IOPIN 160 -32 BiDir
FLAG 160 352 vss
IOPIN 160 352 BiDir
FLAG -128 128 vref
IOPIN -128 128 In
FLAG -144 160 vin
IOPIN -144 160 In
FLAG 576 128 vout
IOPIN 576 128 Out
SYMBOL dsproj_nmos_comparator 0 144 R0
SYMATTR InstName X1
SYMBOL dsproj_nmos_comparator 416 144 R0
SYMATTR InstName X2
SYMBOL res 272 -16 R0
SYMATTR InstName R1
SYMATTR Value 2k
SYMBOL res 272 208 R0
SYMATTR InstName R2
SYMATTR Value 1k
RECTANGLE Normal 656 384 -256 -128
