Version 4.1
SHEET 1 1348 1364
WIRE -320 -320 -320 -368
WIRE -320 -272 -320 -320
WIRE -496 -192 -624 -192
WIRE -496 -160 -624 -160
WIRE 0 -144 -160 -144
WIRE 80 -144 0 -144
WIRE -496 -128 -624 -128
WIRE -496 -96 -624 -96
WIRE 624 -16 624 -80
WIRE -336 48 -336 0
WIRE 0 48 0 -144
WIRE 544 48 0 48
WIRE 816 48 752 48
WIRE 880 48 816 48
WIRE -304 64 -304 0
WIRE -336 80 -336 48
WIRE -304 80 -304 64
WIRE 544 80 0 80
WIRE -320 192 -320 144
WIRE -320 240 -320 192
WIRE 608 240 608 160
WIRE -576 336 -592 336
WIRE -480 336 -576 336
WIRE -96 352 -192 352
WIRE 0 352 0 80
WIRE 0 352 -96 352
WIRE 32 352 0 352
WIRE -736 368 -752 368
WIRE -480 368 -736 368
WIRE 640 368 640 160
WIRE -96 384 -96 352
WIRE -96 496 -96 448
WIRE -96 512 -96 496
WIRE -352 576 -352 480
WIRE -320 576 -320 480
FLAG -320 -320 vdd
FLAG -320 192 vdd
FLAG 624 -80 vdd
IOPIN 624 -80 BiDir
FLAG -352 576 vss
FLAG -304 64 vss
FLAG 640 368 vss
IOPIN 640 368 BiDir
FLAG -320 576 vsub
FLAG -336 48 vsub
FLAG 608 240 vsub
IOPIN 608 240 BiDir
FLAG -624 -192 dac_b0
IOPIN -624 -192 In
FLAG -624 -160 dac_b1
IOPIN -624 -160 In
FLAG -624 -128 dac_b2
IOPIN -624 -128 In
FLAG -624 -96 dac_b3
IOPIN -624 -96 In
FLAG -576 336 start
IOPIN -576 336 In
FLAG 80 -144 testpoint_dac_out
IOPIN 80 -144 Out
FLAG 32 352 testpoint_sh_out
IOPIN 32 352 Out
FLAG 816 48 comp_out
FLAG -736 368 analog_input
IOPIN -736 368 In
FLAG 880 48 comp_out
IOPIN 880 48 Out
FLAG -96 496 vss
SYMBOL dsproj_r2rdac -400 -64 R0
SYMATTR InstName X2
SYMBOL dsproj_twostagecomparator 624 64 R0
SYMATTR InstName X3
SYMBOL cap -112 384 R0
SYMATTR InstName C1
SYMATTR Value 20p
SYMBOL dsproj_cmossampleandhold -336 384 R0
SYMATTR InstName X4
TEXT -864 -352 Left 5 ;Anatop
