Version 4.1
SHEET 1 1636 756
WIRE 656 -112 656 -144
WIRE -32 -80 -32 -112
WIRE -32 -64 -32 -80
WIRE 656 -64 656 -112
WIRE -32 -32 -32 -64
WIRE 432 -32 416 -32
WIRE 480 -32 432 -32
WIRE 224 0 192 0
WIRE 256 0 224 0
WIRE 352 0 288 0
WIRE 480 0 352 0
WIRE 880 16 816 16
WIRE 928 16 880 16
WIRE -272 32 -304 32
WIRE -224 32 -272 32
WIRE 224 32 192 32
WIRE 256 32 224 32
WIRE 416 32 368 32
WIRE 480 32 416 32
WIRE 880 48 816 48
WIRE 928 48 880 48
WIRE -272 64 -304 64
WIRE -224 64 -272 64
WIRE 320 64 192 64
WIRE 480 64 320 64
WIRE 880 80 816 80
WIRE 928 80 880 80
WIRE -272 96 -304 96
WIRE -224 96 -272 96
WIRE 320 96 192 96
WIRE 480 96 320 96
WIRE 880 112 816 112
WIRE 928 112 880 112
WIRE 320 128 192 128
WIRE 480 128 320 128
WIRE 320 160 192 160
WIRE 480 160 320 160
WIRE -16 224 -16 176
WIRE -48 256 -48 176
WIRE -16 256 -16 224
WIRE 624 256 624 192
WIRE 672 256 672 192
WIRE -48 272 -48 256
WIRE -16 272 -16 256
WIRE 624 272 624 256
WIRE 672 272 672 256
WIRE -304 384 -320 384
WIRE -208 384 -304 384
WIRE -32 384 -128 384
WIRE 400 432 384 432
WIRE 464 432 400 432
WIRE 624 432 544 432
WIRE -304 480 -320 480
WIRE -208 480 -304 480
WIRE -16 480 -128 480
WIRE 400 528 384 528
WIRE 464 528 400 528
WIRE 624 528 544 528
WIRE -304 560 -320 560
WIRE -208 560 -304 560
WIRE -16 560 -128 560
FLAG -32 -64 vdd
FLAG 656 -112 vdd
IOPIN 656 -112 BiDir
FLAG -48 256 vsub
FLAG 672 256 vsub
FLAG 624 256 vss
FLAG -16 256 vss
FLAG 352 0 comparator_signal
IOPIN 352 0 In
FLAG 432 -32 clk_b
FLAG 880 16 q0
FLAG 880 48 q1
FLAG 880 80 q2
FLAG 880 112 q3
FLAG 928 48 q1
IOPIN 928 48 Out
FLAG 928 80 q2
IOPIN 928 80 Out
FLAG 928 112 q3
IOPIN 928 112 Out
FLAG 928 16 q0
IOPIN 928 16 Out
FLAG 416 32 reset
FLAG 224 0 clk
FLAG 224 32 clk_b
FLAG 320 64 sel0
FLAG 320 96 sel1
FLAG 320 128 sel2
FLAG 320 160 sel3
FLAG -304 384 sel0
FLAG -304 480 sel1
FLAG -304 560 sel2
FLAG 400 432 sel3
FLAG 400 528 clk_b
FLAG -32 384 testpoint_sel0
IOPIN -32 384 Out
FLAG -16 480 testpoint_sel1
IOPIN -16 480 Out
FLAG -16 560 testpoint_sel2
IOPIN -16 560 Out
FLAG 624 432 testpoint_sel3
IOPIN 624 432 Out
FLAG 624 528 tespoint_clk_b
IOPIN 624 528 Out
FLAG -16 224 vss
IOPIN -16 224 BiDir
FLAG 672 272 vsub
IOPIN 672 272 BiDir
FLAG -272 32 clk0
FLAG -272 64 reset
FLAG -272 96 start
FLAG -304 32 clk0
IOPIN -304 32 In
FLAG -304 64 reset
IOPIN -304 64 In
FLAG -304 96 start
IOPIN -304 96 In
FLAG -32 -80 vdd
IOPIN -32 -80 BiDir
FLAG -48 272 vsub
IOPIN -48 272 BiDir
FLAG 624 272 vss
IOPIN 624 272 BiDir
SYMBOL res -112 368 R90
WINDOW 0 0 56 VBottom 2
WINDOW 3 32 56 VTop 2
SYMATTR InstName R1
SYMATTR Value 1
SYMBOL res -112 464 R90
WINDOW 0 0 56 VBottom 2
WINDOW 3 32 56 VTop 2
SYMATTR InstName R2
SYMATTR Value 1
SYMBOL res -112 544 R90
WINDOW 0 0 56 VBottom 2
WINDOW 3 32 56 VTop 2
SYMATTR InstName R3
SYMATTR Value 1
SYMBOL res 560 416 R90
WINDOW 0 0 56 VBottom 2
WINDOW 3 32 56 VTop 2
SYMATTR InstName R4
SYMATTR Value 1
SYMBOL res 560 512 R90
WINDOW 0 0 56 VBottom 2
WINDOW 3 32 56 VTop 2
SYMATTR InstName R5
SYMATTR Value 1
SYMBOL dsproj_clkgenerator -96 112 R0
SYMATTR InstName X3
SYMBOL dsproj_SARlogicblock 576 64 R0
SYMATTR InstName X4
TEXT -568 -224 Left 4 ;Digtop
